<?xml version="1.0" encoding="UTF-8"?>

<!-- generated on 2024-11-26 17:28:14 by Eclipse SUMO netedit Version 1.21.0
<neteditConfiguration xmlns:xsi="http://www.w3.org/2001/XMLSchema-instance" xsi:noNamespaceSchemaLocation="http://sumo.dlr.de/xsd/neteditConfiguration.xsd">

    <input>
        <sumo-net-file value="D:\Jerrin\Project\kamppi.net.xml"/>
    </input>

    <output>
        <output-file value="D:\Jerrin\Project\kamppi.net.xml"/>
    </output>

    <processing>
        <geometry.min-radius.fix.railways value="false"/>
        <geometry.max-grade.fix value="false"/>
        <offset.disable-normalization value="true"/>
        <lefthand value="0"/>
    </processing>

    <junctions>
        <no-turnarounds value="true"/>
        <junctions.corner-detail value="5"/>
        <junctions.limit-turn-speed value="5.50"/>
        <rectangular-lane-cut value="0"/>
    </junctions>

    <pedestrian>
        <walkingareas value="0"/>
    </pedestrian>

</neteditConfiguration>
-->

<net version="1.20" junctionCornerDetail="5" limitTurnSpeed="5.50" xmlns:xsi="http://www.w3.org/2001/XMLSchema-instance" xsi:noNamespaceSchemaLocation="http://sumo.dlr.de/xsd/net_file.xsd">

    <location netOffset="-384247.53,-6671095.47" convBoundary="986.50,309.31,1561.30,821.20" origBoundary="24.914235,60.160604,24.966608,60.189319" projParameter="+proj=utm +zone=35 +ellps=WGS84 +datum=WGS84 +units=m +no_defs"/>

    <type id="highway.cycleway" priority="1" numLanes="1" speed="5.56" allow="bicycle" oneway="0" width="2.00"/>
    <type id="highway.footway" priority="1" numLanes="1" speed="2.78" allow="pedestrian" oneway="1" width="2.00"/>
    <type id="highway.pedestrian" priority="1" numLanes="1" speed="2.78" allow="pedestrian" oneway="1" width="2.00"/>
    <type id="highway.primary" priority="12" numLanes="2" speed="27.78" disallow="tram rail_urban rail rail_electric rail_fast ship container cable_car subway aircraft wheelchair scooter drone" oneway="0"/>
    <type id="highway.residential" priority="3" numLanes="1" speed="13.89" disallow="tram rail_urban rail rail_electric rail_fast ship container cable_car subway aircraft wheelchair scooter drone" oneway="0"/>
    <type id="highway.service" priority="1" numLanes="1" speed="5.56" allow="pedestrian delivery bicycle" oneway="0"/>
    <type id="highway.steps" priority="1" numLanes="1" speed="1.39" allow="pedestrian" oneway="1" width="2.00"/>
    <type id="highway.tertiary" priority="10" numLanes="1" speed="22.22" disallow="tram rail_urban rail rail_electric rail_fast ship container cable_car subway aircraft wheelchair scooter drone" oneway="0"/>
    <type id="railway.tram" priority="17" numLanes="1" speed="13.89" allow="tram" oneway="1"/>

    <edge id=":1007824409_0" function="internal">
        <lane id=":1007824409_0_0" index="0" allow="tram" speed="13.89" length="8.13" shape="1276.96,396.68 1276.79,399.07 1276.87,400.73 1277.26,402.35 1278.01,404.64"/>
    </edge>
    <edge id=":1007824409_1" function="internal">
        <lane id=":1007824409_1_0" index="0" allow="pedestrian bicycle" speed="5.56" length="2.75" width="2.00" shape="1276.60,400.33 1278.90,401.85"/>
    </edge>
    <edge id=":1007824442_0" function="internal">
        <lane id=":1007824442_0_0" index="0" allow="tram" speed="13.89" length="3.01" shape="1283.87,412.75 1284.54,413.34 1285.01,413.73 1285.51,414.10 1286.25,414.59"/>
    </edge>
    <edge id=":1007824442_1" function="internal">
        <lane id=":1007824442_1_0" index="0" allow="tram" speed="13.89" length="3.00" shape="1283.74,412.95 1286.25,414.59"/>
    </edge>
    <edge id=":1007824503_0" function="internal">
        <lane id=":1007824503_0_0" index="0" allow="tram" speed="13.89" length="3.84" shape="1274.81,407.23 1274.30,406.21 1273.96,405.50 1273.72,404.76 1273.50,403.65"/>
    </edge>
    <edge id=":1007824503_1" function="internal">
        <lane id=":1007824503_1_0" index="0" allow="tram" speed="13.89" length="8.58" shape="1271.45,405.00 1278.66,409.63"/>
    </edge>
    <edge id=":1007824561_0" function="internal">
        <lane id=":1007824561_0_0" index="0" allow="pedestrian bicycle" speed="5.56" length="4.07" width="2.00" shape="1256.81,407.22 1253.42,404.97"/>
    </edge>
    <edge id=":1007824729_0" function="internal">
        <lane id=":1007824729_0_0" index="0" allow="tram" speed="13.89" length="6.34" shape="1278.08,404.83 1278.71,406.59 1279.28,407.75 1280.05,408.79 1281.29,410.20"/>
    </edge>
    <edge id=":1007824731_0" function="internal">
        <lane id=":1007824731_0_0" index="0" allow="tram" speed="13.89" length="4.55" shape="1278.91,412.90 1277.93,411.97 1277.31,411.29 1276.73,410.56 1275.91,409.49"/>
    </edge>
    <edge id=":1007824762_0" function="internal">
        <lane id=":1007824762_0_0" index="0" allow="pedestrian bicycle" speed="5.56" length="3.20" width="2.00" shape="1273.50,417.94 1270.83,416.18"/>
    </edge>
    <edge id=":1007824779_0" function="internal">
        <lane id=":1007824779_0_0" index="0" allow="pedestrian bicycle" speed="5.56" length="3.88" width="2.00" shape="1405.81,504.72 1402.53,502.64"/>
    </edge>
    <edge id=":1007824814_0" function="internal">
        <lane id=":1007824814_0_0" index="0" allow="tram" speed="13.89" length="3.01" shape="1284.07,417.00 1281.55,415.36"/>
    </edge>
    <edge id=":1007824814_1" function="internal">
        <lane id=":1007824814_1_0" index="0" allow="tram" speed="13.89" length="3.02" shape="1284.07,417.00 1283.33,416.51 1282.82,416.16 1282.34,415.78 1281.64,415.23"/>
    </edge>
    <edge id=":1011415099_0" function="internal">
        <lane id=":1011415099_0_0" index="0" allow="tram" speed="13.89" length="0.10" shape="1278.45,390.86 1278.45,390.86"/>
    </edge>
    <edge id=":1011415132_0" function="internal">
        <lane id=":1011415132_0_0" index="0" allow="tram" speed="13.89" length="8.62" shape="1273.47,403.45 1273.04,400.93 1272.82,399.17 1272.90,397.42 1273.36,394.92"/>
    </edge>
    <edge id=":1011415132_1" function="internal">
        <lane id=":1011415132_1_0" index="0" allow="pedestrian bicycle" speed="6.63" length="4.72" width="2.00" shape="1276.78,395.52 1276.43,400.23"/>
    </edge>
    <edge id=":1011415132_2" function="internal">
        <lane id=":1011415132_2_0" index="0" disallow="tram rail_urban rail rail_electric rail_fast ship container cable_car subway aircraft wheelchair scooter drone" speed="8.33" length="9.04" shape="1276.78,395.52 1276.48,398.15 1275.17,399.64 1273.25,400.96 1271.13,403.09"/>
        <lane id=":1011415132_2_1" index="1" disallow="tram rail_urban rail rail_electric rail_fast ship container cable_car subway aircraft wheelchair scooter drone" speed="8.33" length="9.04" shape="1273.55,395.43 1273.24,397.51 1272.03,398.59 1270.33,399.54 1268.55,401.21"/>
    </edge>
    <edge id=":1011415132_4" function="internal">
        <lane id=":1011415132_4_0" index="0" allow="pedestrian bicycle" speed="5.56" length="9.08" width="2.00" shape="1268.56,395.70 1276.43,400.23"/>
    </edge>
    <edge id=":1011415132_5" function="internal">
        <lane id=":1011415132_5_0" index="0" allow="pedestrian bicycle" speed="5.28" length="6.32" width="2.00" shape="1268.56,395.70 1269.59,396.68 1269.93,397.93 1269.58,399.44 1268.55,401.21"/>
    </edge>
    <edge id=":11656934441_0" function="internal">
        <lane id=":11656934441_0_0" index="0" allow="tram" speed="13.89" length="9.48" shape="1335.29,450.50 1327.36,445.31"/>
    </edge>
    <edge id=":11656934441_1" function="internal">
        <lane id=":11656934441_1_0" index="0" allow="pedestrian delivery bicycle" speed="5.56" length="3.04" shape="1332.62,448.87 1331.01,451.44"/>
    </edge>
    <edge id=":11656934441_2" function="internal">
        <lane id=":11656934441_2_0" index="0" allow="pedestrian delivery bicycle" speed="5.56" length="3.03" shape="1328.29,449.75 1329.90,447.18"/>
    </edge>
    <edge id=":11752591853_0" function="internal">
        <lane id=":11752591853_0_0" index="0" allow="pedestrian delivery bicycle" speed="5.56" length="3.00" shape="1550.01,591.24 1548.35,593.74"/>
    </edge>
    <edge id=":11752591853_1" function="internal">
        <lane id=":11752591853_1_0" index="0" allow="pedestrian delivery bicycle" speed="5.56" length="3.03" shape="1545.68,591.96 1547.37,589.44"/>
    </edge>
    <edge id=":11752624196_0" function="internal">
        <lane id=":11752624196_0_0" index="0" allow="tram" speed="13.89" length="9.49" shape="1308.23,432.80 1300.29,427.60"/>
    </edge>
    <edge id=":11752624196_1" function="internal">
        <lane id=":11752624196_1_0" index="0" allow="pedestrian delivery bicycle" speed="5.56" length="3.06" shape="1305.50,431.22 1303.74,433.74"/>
    </edge>
    <edge id=":11752624196_2" function="internal">
        <lane id=":11752624196_2_0" index="0" allow="pedestrian delivery bicycle" speed="5.56" length="3.05" shape="1301.12,431.91 1302.86,429.41"/>
    </edge>
    <edge id=":12030751373_0" function="internal">
        <lane id=":12030751373_0_0" index="0" allow="pedestrian bicycle" speed="5.56" length="4.22" width="2.00" shape="1367.68,479.66 1364.15,477.35"/>
    </edge>
    <edge id=":12030751375_0" function="internal">
        <lane id=":12030751375_0_0" index="0" allow="pedestrian bicycle" speed="5.56" length="4.53" width="2.00" shape="1363.98,477.24 1360.19,474.76"/>
    </edge>
    <edge id=":12124374263_0" function="internal">
        <lane id=":12124374263_0_0" index="0" allow="pedestrian delivery bicycle" speed="4.74" length="4.37" shape="1447.67,714.03 1446.73,713.64 1445.82,713.73 1444.93,714.32 1444.07,715.39"/>
    </edge>
    <edge id=":12124374263_1" function="internal">
        <lane id=":12124374263_1_0" index="0" allow="pedestrian delivery bicycle" speed="6.70" length="9.49" shape="1447.67,714.03 1445.88,712.37 1445.07,710.44 1445.26,708.23 1446.44,705.75"/>
    </edge>
    <edge id=":12124374263_2" function="internal">
        <lane id=":12124374263_2_0" index="0" allow="pedestrian delivery bicycle" speed="3.65" length="4.67" shape="1447.67,714.03 1447.11,712.70 1447.22,711.81 1448.00,711.37 1449.44,711.37"/>
    </edge>
    <edge id=":12124374263_3" function="internal">
        <lane id=":12124374263_3_0" index="0" allow="pedestrian delivery bicycle" speed="4.82" length="4.41" shape="1449.13,707.47 1448.53,708.69 1448.39,709.74 1448.69,710.63 1449.44,711.37"/>
    </edge>
    <edge id=":12124374263_4" function="internal">
        <lane id=":12124374263_4_0" index="0" disallow="tram rail_urban rail rail_electric rail_fast ship container cable_car subway aircraft wheelchair scooter drone" speed="8.33" length="9.40" shape="1449.13,707.47 1444.07,715.39"/>
    </edge>
    <edge id=":12124374263_5" function="internal">
        <lane id=":12124374263_5_0" index="0" disallow="tram rail_urban rail rail_electric rail_fast ship container cable_car subway aircraft wheelchair scooter drone" speed="8.33" length="9.40" shape="1441.38,713.67 1446.44,705.75"/>
    </edge>
    <edge id=":12124374263_6" function="internal">
        <lane id=":12124374263_6_0" index="0" allow="pedestrian delivery bicycle" speed="6.64" length="3.46" shape="1441.38,713.67 1443.17,711.51 1443.74,711.19"/>
    </edge>
    <edge id=":12124374263_7" function="internal">
        <lane id=":12124374263_7_0" index="0" allow="pedestrian delivery bicycle" speed="6.64" length="6.13" shape="1443.74,711.19 1445.12,710.40 1447.21,710.35 1449.44,711.37"/>
    </edge>
    <edge id=":1297403622_0" function="internal">
        <lane id=":1297403622_0_0" index="0" disallow="tram rail_urban rail rail_electric rail_fast ship container cable_car subway aircraft wheelchair scooter drone" speed="8.33" length="0.30" shape="1034.63,447.53 1034.80,447.27"/>
        <lane id=":1297403622_0_1" index="1" disallow="tram rail_urban rail rail_electric rail_fast ship container cable_car subway aircraft wheelchair scooter drone" speed="8.33" length="0.30" shape="1037.30,449.28 1037.47,449.03"/>
    </edge>
    <edge id=":1297403632_0" function="internal">
        <lane id=":1297403632_0_0" index="0" disallow="tram rail_urban rail rail_electric rail_fast ship container cable_car subway aircraft wheelchair scooter drone" speed="8.33" length="0.10" shape="1005.49,491.82 1005.49,491.82"/>
        <lane id=":1297403632_0_1" index="1" disallow="tram rail_urban rail rail_electric rail_fast ship container cable_car subway aircraft wheelchair scooter drone" speed="8.33" length="0.10" shape="1008.17,493.58 1008.17,493.58"/>
    </edge>
    <edge id=":1297403637_0" function="internal">
        <lane id=":1297403637_0_0" index="0" disallow="tram rail_urban rail rail_electric rail_fast ship container cable_car subway aircraft wheelchair scooter drone" speed="8.33" length="0.30" shape="1039.80,439.68 1039.97,439.43"/>
        <lane id=":1297403637_0_1" index="1" disallow="tram rail_urban rail rail_electric rail_fast ship container cable_car subway aircraft wheelchair scooter drone" speed="8.33" length="0.30" shape="1042.47,441.44 1042.64,441.18"/>
    </edge>
    <edge id=":1297407672_0" function="internal">
        <lane id=":1297407672_0_0" index="0" disallow="tram rail_urban rail rail_electric rail_fast ship container cable_car subway aircraft wheelchair scooter drone" speed="8.33" length="0.10" shape="1053.49,418.48 1053.43,418.56"/>
        <lane id=":1297407672_0_1" index="1" disallow="tram rail_urban rail rail_electric rail_fast ship container cable_car subway aircraft wheelchair scooter drone" speed="8.33" length="0.10" shape="1056.17,420.23 1056.13,420.29"/>
    </edge>
    <edge id=":1297407675_0" function="internal">
        <lane id=":1297407675_0_0" index="0" disallow="tram rail_urban rail rail_electric rail_fast ship container cable_car subway aircraft wheelchair scooter drone" speed="8.33" length="0.30" shape="1074.57,385.70 1074.74,385.45"/>
        <lane id=":1297407675_0_1" index="1" disallow="tram rail_urban rail rail_electric rail_fast ship container cable_car subway aircraft wheelchair scooter drone" speed="8.33" length="0.30" shape="1077.26,387.43 1077.43,387.18"/>
    </edge>
    <edge id=":1297407676_0" function="internal">
        <lane id=":1297407676_0_0" index="0" disallow="tram rail_urban rail rail_electric rail_fast ship container cable_car subway aircraft wheelchair scooter drone" speed="8.33" length="0.30" shape="1064.33,401.61 1064.50,401.36"/>
        <lane id=":1297407676_0_1" index="1" disallow="tram rail_urban rail rail_electric rail_fast ship container cable_car subway aircraft wheelchair scooter drone" speed="8.33" length="0.30" shape="1067.02,403.34 1067.19,403.09"/>
    </edge>
    <edge id=":1297407679_0" function="internal">
        <lane id=":1297407679_0_0" index="0" disallow="tram rail_urban rail rail_electric rail_fast ship container cable_car subway aircraft wheelchair scooter drone" speed="8.33" length="0.30" shape="1094.43,354.97 1094.59,354.72"/>
        <lane id=":1297407679_0_1" index="1" disallow="tram rail_urban rail rail_electric rail_fast ship container cable_car subway aircraft wheelchair scooter drone" speed="8.33" length="0.30" shape="1097.10,356.72 1097.27,356.47"/>
    </edge>
    <edge id=":1371750095_0" function="internal">
        <lane id=":1371750095_0_0" index="0" disallow="tram rail_urban rail rail_electric rail_fast ship container cable_car subway aircraft wheelchair scooter drone" speed="6.10" length="7.74" shape="1230.47,753.29 1229.60,755.24 1229.55,757.00 1230.31,758.57 1231.90,759.94"/>
    </edge>
    <edge id=":1371750095_1" function="internal">
        <lane id=":1371750095_1_0" index="0" disallow="tram rail_urban rail rail_electric rail_fast ship container cable_car subway aircraft wheelchair scooter drone" speed="8.33" length="9.98" shape="1230.47,753.29 1225.04,761.66"/>
    </edge>
    <edge id=":1371750095_2" function="internal">
        <lane id=":1371750095_2_0" index="0" disallow="tram rail_urban rail rail_electric rail_fast ship container cable_car subway aircraft wheelchair scooter drone" speed="6.89" length="9.96" shape="1230.47,753.29 1228.97,754.83 1226.98,755.40 1224.52,755.01 1221.57,753.66"/>
    </edge>
    <edge id=":1371750095_3" function="internal">
        <lane id=":1371750095_3_0" index="0" disallow="tram rail_urban rail rail_electric rail_fast ship container cable_car subway aircraft wheelchair scooter drone" speed="3.65" length="4.67" shape="1230.47,753.29 1229.16,753.88 1228.27,753.80 1227.80,753.03 1227.76,751.59"/>
    </edge>
    <edge id=":1371750095_4" function="internal">
        <lane id=":1371750095_4_0" index="0" disallow="tram rail_urban rail rail_electric rail_fast ship container cable_car subway aircraft wheelchair scooter drone" speed="5.77" length="7.24" shape="1222.38,759.87 1223.38,757.93 1223.57,756.25 1222.97,754.83 1221.57,753.66"/>
    </edge>
    <edge id=":1371750095_5" function="internal">
        <lane id=":1371750095_5_0" index="0" disallow="tram rail_urban rail rail_electric rail_fast ship container cable_car subway aircraft wheelchair scooter drone" speed="8.33" length="9.87" shape="1222.38,759.87 1227.76,751.59"/>
    </edge>
    <edge id=":1371750095_6" function="internal">
        <lane id=":1371750095_6_0" index="0" disallow="tram rail_urban rail rail_electric rail_fast ship container cable_car subway aircraft wheelchair scooter drone" speed="7.07" length="10.65" shape="1222.38,759.87 1224.04,758.30 1226.18,757.79 1228.80,758.33 1231.90,759.94"/>
    </edge>
    <edge id=":1371750095_7" function="internal">
        <lane id=":1371750095_7_0" index="0" disallow="tram rail_urban rail rail_electric rail_fast ship container cable_car subway aircraft wheelchair scooter drone" speed="3.65" length="4.67" shape="1222.38,759.87 1223.72,759.32 1224.60,759.44 1225.04,760.22 1225.04,761.66"/>
    </edge>
    <edge id=":1371750097_0" function="internal">
        <lane id=":1371750097_0_0" index="0" disallow="tram rail_urban rail rail_electric rail_fast ship container cable_car subway aircraft wheelchair scooter drone" speed="5.95" length="6.82" width="5.00" shape="1307.17,808.33 1308.75,809.28 1310.27,809.50 1311.74,808.99 1313.15,807.75"/>
    </edge>
    <edge id=":1371750097_1" function="internal">
        <lane id=":1371750097_1_0" index="0" disallow="tram rail_urban rail rail_electric rail_fast ship container cable_car subway aircraft wheelchair scooter drone" speed="7.12" length="9.82" shape="1307.17,808.33 1308.31,809.87 1308.53,811.87 1307.82,814.32 1306.18,817.23"/>
    </edge>
    <edge id=":1372441170_0" function="internal">
        <lane id=":1372441170_0_0" index="0" disallow="tram rail_urban rail rail_electric rail_fast ship container cable_car subway aircraft wheelchair scooter drone" speed="8.33" length="11.87" shape="996.06,518.88 986.12,512.39"/>
    </edge>
    <edge id=":1372441170_1" function="internal">
        <lane id=":1372441170_1_0" index="0" disallow="tram rail_urban rail rail_electric rail_fast ship container cable_car subway aircraft wheelchair scooter drone" speed="6.39" length="8.68" shape="996.06,518.88 994.91,517.62 994.62,515.91 995.20,513.74 996.63,511.11"/>
    </edge>
    <edge id=":1372441170_2" function="internal">
        <lane id=":1372441170_2_0" index="0" disallow="tram rail_urban rail rail_electric rail_fast ship container cable_car subway aircraft wheelchair scooter drone" speed="3.65" length="4.67" shape="996.06,518.88 995.49,517.56 995.59,516.67 996.36,516.22 997.81,516.20"/>
    </edge>
    <edge id=":1372441170_3" function="internal">
        <lane id=":1372441170_3_0" index="0" disallow="tram rail_urban rail rail_electric rail_fast ship container cable_car subway aircraft wheelchair scooter drone" speed="5.78" length="6.91" shape="987.87,509.71 989.79,510.70 991.44,510.97 992.83,510.52 993.96,509.36"/>
    </edge>
    <edge id=":1372441170_4" function="internal">
        <lane id=":1372441170_4_0" index="0" disallow="tram rail_urban rail rail_electric rail_fast ship container cable_car subway aircraft wheelchair scooter drone" speed="8.33" length="11.86" shape="987.87,509.71 997.81,516.20"/>
    </edge>
    <edge id=":1372441170_5" function="internal">
        <lane id=":1372441170_5_0" index="0" disallow="tram rail_urban rail rail_electric rail_fast ship container cable_car subway aircraft wheelchair scooter drone" speed="3.65" length="4.67" shape="987.87,509.71 988.44,511.04 988.33,511.93 987.56,512.38 986.12,512.39"/>
    </edge>
    <edge id=":1372441170_6" function="internal">
        <lane id=":1372441170_6_0" index="0" disallow="tram rail_urban rail rail_electric rail_fast ship container cable_car subway aircraft wheelchair scooter drone" speed="5.76" length="6.86" shape="988.25,518.06 988.86,516.58 988.70,515.15 987.79,513.75 986.12,512.39"/>
    </edge>
    <edge id=":1372441170_7" function="internal">
        <lane id=":1372441170_7_0" index="0" disallow="tram rail_urban rail rail_electric rail_fast ship container cable_car subway aircraft wheelchair scooter drone" speed="8.33" length="10.40" shape="988.25,518.06 993.96,509.36"/>
        <lane id=":1372441170_7_1" index="1" disallow="tram rail_urban rail rail_electric rail_fast ship container cable_car subway aircraft wheelchair scooter drone" speed="8.33" length="10.40" shape="990.93,519.82 996.63,511.11"/>
    </edge>
    <edge id=":1372441170_9" function="internal">
        <lane id=":1372441170_9_0" index="0" disallow="tram rail_urban rail rail_electric rail_fast ship container cable_car subway aircraft wheelchair scooter drone" speed="6.39" length="8.65" shape="990.93,519.82 992.75,517.46 994.51,516.08 996.19,515.65 997.81,516.20"/>
    </edge>
    <edge id=":1377208998_0" function="internal">
        <lane id=":1377208998_0_0" index="0" disallow="tram rail_urban rail rail_electric rail_fast ship container cable_car subway aircraft wheelchair scooter drone" speed="8.33" length="6.22" shape="1366.65,637.14 1361.43,633.77"/>
        <lane id=":1377208998_0_1" index="1" disallow="tram rail_urban rail rail_electric rail_fast ship container cable_car subway aircraft wheelchair scooter drone" speed="8.33" length="6.22" shape="1368.40,634.45 1363.16,631.07"/>
    </edge>
    <edge id=":1377208998_2" function="internal">
        <lane id=":1377208998_2_0" index="0" allow="pedestrian delivery bicycle" speed="4.72" length="4.37" shape="1362.79,637.35 1363.19,636.42 1363.10,635.52 1362.51,634.63 1361.43,633.77"/>
    </edge>
    <edge id=":1377209035_0" function="internal">
        <lane id=":1377209035_0_0" index="0" allow="pedestrian delivery bicycle" speed="4.98" length="4.59" shape="1416.69,669.65 1415.50,669.07 1414.42,668.95 1413.46,669.29 1412.62,670.09"/>
    </edge>
    <edge id=":1377209035_1" function="internal">
        <lane id=":1377209035_1_0" index="0" disallow="tram rail_urban rail rail_electric rail_fast ship container cable_car subway aircraft wheelchair scooter drone" speed="8.33" length="6.21" shape="1416.69,669.65 1411.48,666.28"/>
        <lane id=":1377209035_1_1" index="1" disallow="tram rail_urban rail rail_electric rail_fast ship container cable_car subway aircraft wheelchair scooter drone" speed="8.33" length="6.21" shape="1418.43,666.97 1413.22,663.59"/>
    </edge>
    <edge id=":1377211666_0" function="internal">
        <lane id=":1377211666_0_0" index="0" disallow="tram rail_urban rail rail_electric rail_fast ship container cable_car subway aircraft wheelchair scooter drone" speed="5.59" length="6.42" width="5.00" shape="1328.04,612.39 1326.40,611.60 1324.93,611.51 1323.63,612.09 1322.50,613.37"/>
    </edge>
    <edge id=":1377211666_1" function="internal">
        <lane id=":1377211666_1_0" index="0" disallow="tram rail_urban rail rail_electric rail_fast ship container cable_car subway aircraft wheelchair scooter drone" speed="8.33" length="12.64" shape="1328.04,612.39 1317.47,605.45"/>
        <lane id=":1377211666_1_1" index="1" disallow="tram rail_urban rail rail_electric rail_fast ship container cable_car subway aircraft wheelchair scooter drone" speed="8.33" length="12.64" shape="1329.79,609.71 1319.23,602.78"/>
    </edge>
    <edge id=":1377211666_3" function="internal">
        <lane id=":1377211666_3_0" index="0" disallow="tram rail_urban rail rail_electric rail_fast ship container cable_car subway aircraft wheelchair scooter drone" speed="7.10" length="10.88" width="5.00" shape="1329.79,609.71 1326.57,607.32 1324.58,605.14 1323.80,603.17 1324.25,601.42"/>
    </edge>
    <edge id=":1377211666_4" function="internal">
        <lane id=":1377211666_4_0" index="0" disallow="tram rail_urban rail rail_electric rail_fast ship container cable_car subway aircraft wheelchair scooter drone" speed="8.33" length="10.99" width="5.00" shape="1328.45,604.13 1322.50,613.37"/>
    </edge>
    <edge id=":1377211666_5" function="internal">
        <lane id=":1377211666_5_0" index="0" disallow="tram rail_urban rail rail_electric rail_fast ship container cable_car subway aircraft wheelchair scooter drone" speed="7.05" length="10.27" shape="1328.45,604.13 1327.07,605.29 1325.08,605.45 1322.46,604.62 1319.23,602.78"/>
    </edge>
    <edge id=":1377211666_6" function="internal">
        <lane id=":1377211666_6_0" index="0" disallow="tram rail_urban rail rail_electric rail_fast ship container cable_car subway aircraft wheelchair scooter drone" speed="4.56" length="7.30" width="5.00" shape="1328.45,604.13 1326.38,605.03 1325.00,604.88 1324.28,603.68 1324.25,601.42"/>
    </edge>
    <edge id=":1377211666_7" function="internal">
        <lane id=":1377211666_7_0" index="0" disallow="tram rail_urban rail rail_electric rail_fast ship container cable_car subway aircraft wheelchair scooter drone" speed="5.68" length="5.99" shape="1318.30,610.66 1319.04,609.11 1319.14,607.72 1318.62,606.50 1317.47,605.45"/>
    </edge>
    <edge id=":1377211666_8" function="internal">
        <lane id=":1377211666_8_0" index="0" disallow="tram rail_urban rail rail_electric rail_fast ship container cable_car subway aircraft wheelchair scooter drone" speed="8.33" length="10.98" width="5.00" shape="1318.30,610.66 1324.25,601.42"/>
    </edge>
    <edge id=":1377211666_9" function="internal">
        <lane id=":1377211666_9_0" index="0" disallow="tram rail_urban rail rail_electric rail_fast ship container cable_car subway aircraft wheelchair scooter drone" speed="4.56" length="7.30" width="5.00" shape="1318.30,610.66 1320.36,609.76 1321.75,609.91 1322.47,611.11 1322.50,613.37"/>
    </edge>
    <edge id=":1377211667_0" function="internal">
        <lane id=":1377211667_0_0" index="0" disallow="tram rail_urban rail rail_electric rail_fast ship container cable_car subway aircraft wheelchair scooter drone" speed="8.33" length="6.55" shape="1096.23,673.78 1094.54,672.90 1093.20,672.64 1091.86,672.38 1090.16,671.50"/>
    </edge>
    <edge id=":1377211667_1" function="internal">
        <lane id=":1377211667_1_0" index="0" disallow="tram rail_urban rail rail_electric rail_fast ship container cable_car subway aircraft wheelchair scooter drone" speed="5.93" length="7.60" shape="1096.12,668.28 1094.54,670.40 1093.02,671.65 1091.56,672.01 1090.16,671.50"/>
    </edge>
    <edge id=":1377211667_2" function="internal">
        <lane id=":1377211667_2_0" index="0" disallow="tram rail_urban rail rail_electric rail_fast ship container cable_car subway aircraft wheelchair scooter drone" speed="3.65" length="4.67" shape="1092.05,668.91 1092.55,670.27 1092.40,671.15 1091.60,671.56 1090.16,671.50"/>
    </edge>
    <edge id=":1377211668_0" function="internal">
        <lane id=":1377211668_0_0" index="0" disallow="tram rail_urban rail rail_electric rail_fast ship container cable_car subway aircraft wheelchair scooter drone" speed="5.71" length="6.82" shape="1271.06,698.04 1269.39,697.28 1267.86,697.26 1266.49,697.99 1265.28,699.46"/>
    </edge>
    <edge id=":1377211668_1" function="internal">
        <lane id=":1377211668_1_0" index="0" disallow="tram rail_urban rail rail_electric rail_fast ship container cable_car subway aircraft wheelchair scooter drone" speed="8.33" length="11.12" shape="1271.06,698.04 1261.71,692.02"/>
    </edge>
    <edge id=":1377211668_2" function="internal">
        <lane id=":1377211668_2_0" index="0" disallow="tram rail_urban rail rail_electric rail_fast ship container cable_car subway aircraft wheelchair scooter drone" speed="7.08" length="10.66" shape="1271.06,698.04 1269.21,696.19 1267.97,693.66 1267.57,690.94 1268.22,688.55"/>
    </edge>
    <edge id=":1377211668_3" function="internal">
        <lane id=":1377211668_3_0" index="0" disallow="tram rail_urban rail rail_electric rail_fast ship container cable_car subway aircraft wheelchair scooter drone" speed="3.65" length="4.67" shape="1271.06,698.04 1270.49,696.72 1270.59,695.83 1271.36,695.38 1272.80,695.36"/>
    </edge>
    <edge id=":1377211668_4" function="internal">
        <lane id=":1377211668_4_0" index="0" disallow="tram rail_urban rail rail_electric rail_fast ship container cable_car subway aircraft wheelchair scooter drone" speed="5.55" length="6.17" shape="1270.95,690.22 1270.42,691.60 1270.55,692.92 1271.34,694.17 1272.80,695.36"/>
    </edge>
    <edge id=":1377211668_5" function="internal">
        <lane id=":1377211668_5_0" index="0" disallow="tram rail_urban rail rail_electric rail_fast ship container cable_car subway aircraft wheelchair scooter drone" speed="8.33" length="10.84" shape="1270.95,690.22 1265.28,699.46"/>
    </edge>
    <edge id=":1377211668_6" function="internal">