<routes xmlns:xsi="http://www.w3.org/2001/XMLSchema-instance" xsi:noNamespaceSchemaLocation="http://sumo.dlr.de/xsd/routes_file.xsd">
    <vehicle id="0" depart="0.00">
        <route edges="30568275#2 316590746#0 316590746#1 316590745 316590744 36729015#0 36729015#1 36729015#2 234072361 234072360#0 234072360#1 234072360#2 234072362 234100809#0 234100809#1 234100809#2 234100501#0 234100501#1 -37293912#0 -37293913#4 -37293913#3 -37293913#2 -37293913#1 -37293913#0 -114554802#10 -114554802#9 -114554802#8 -114554802#7 -114554802#6" />
    </vehicle>
    <vehicle id="2" depart="0.20">
        <route edges="-76333547 -76333545 -234000028 -62212960 -36726224 -36726223#1 -36726223#0 -62213050 -62213052#3 -62213052#2 -62213052#1 -62213052#0 -62201410 -310792148 -80727852#1 -80727852#0 -81796384 -80727847#1 -80727847#0 -80727851 -1122952687#1 -1122952687#0 -1122952688 -128171761 -62200559#1 -62200559#0" />
    </vehicle>
    <vehicle id="1" depart="0.20"><route edges="30568275#2 316590746#0 316590746#1 316590745 316590744 36729015#0 36729015#1 36729015#2 234072361 234072360#0 234072360#1 234072360#2 234072362 234100809#0 234100809#1 234100809#2 234100501#0 234100501#1 -37293912#0 -37293913#4 -37293913#3 -37293913#2 -37293913#1 -37293913#0 -114554802#10 -114554802#9 -114554802#8 -114554802#7 -114554802#6" /></vehicle><vehicle id="4" depart="0.40">
        <route edges="333061565 333061571 81527785#0 81527785#1 333061564 333061566 333061567#0 333061567#1 333061568 333061573#0 333061573#1 333061573#2 30903129#0 30903129#1 30903129#2 126902358 42919376#0 42919376#1 42919375 126902357#0 126902357#1 42919374#0 42919374#1 42919374#2 42919371 42919372 42919373#0 21081120#2 21081120#3 21081120#4 332402667 316713564 36729011#0 36729011#1 36729012 316713565 62200559#0 62200559#1 128171761 1122952688 36729010 36726220#0 36726220#1 29400781#0 29400781#1 29400781#2 324204703 324204704" />
    </vehicle>
    <vehicle id="3" depart="0.40"><route edges="-76333547 -76333545 -234000028 -62212960 -36726224 -36726223#1 -36726223#0 -62213050 -62213052#3 -62213052#2 -62213052#1 -62213052#0 -62201410 -310792148 -80727852#1 -80727852#0 -81796384 -80727847#1 -80727847#0 -80727851 -1122952687#1 -1122952687#0 -1122952688 -128171761 -62200559#1 -62200559#0" /></vehicle><vehicle id="6" depart="0.60">
        <route edges="62212960 234000028 76333545 76333547 233999572#0 233999572#1 -233999572#1 -233999572#0 -76333547 -76333545 -234000028" />
    </vehicle>
    <vehicle id="5" depart="0.60"><route edges="333061565 333061571 81527785#0 81527785#1 333061564 333061566 333061567#0 333061567#1 333061568 333061573#0 333061573#1 333061573#2 30903129#0 30903129#1 30903129#2 126902358 42919376#0 42919376#1 42919375 126902357#0 126902357#1 42919374#0 42919374#1 42919374#2 42919371 42919372 42919373#0 21081120#2 21081120#3 21081120#4 332402667 316713564 36729011#0 36729011#1 36729012 316713565 62200559#0 62200559#1 128171761 1122952688 36729010 36726220#0 36726220#1 29400781#0 29400781#1 29400781#2 324204703 324204704" /></vehicle><vehicle id="8" depart="0.80">
        <route edges="128171761 1122952688 -1122952688 -128171761 -62200559#1 -62200559#0 -316713565 -36729012 -36729011#1 -36729011#0 -316713564 -332402667 -21081120#4 -21081120#3 -21081120#2 -42919373#0 -42919372 -42919371 -42919374#2 -42919374#1 -42919374#0 -126902357#1" />
    </vehicle>
    <vehicle id="7" depart="0.80"><route edges="62212960 234000028 76333545 76333547 233999572#0 233999572#1 -233999572#1 -233999572#0 -76333547 -76333545 -234000028" /></vehicle><vehicle id="10" depart="1.00">
        <route edges="-42919375 -42919376#1 -42919376#0 -126902358 -30903129#2 -30903129#1 30903129#1 30903129#2 126902358 42919376#0 42919376#1 42919375 126902357#0 126902357#1 42919374#0 42919374#1 42919374#2 42919371 42919372 42919373#0 21081120#2 21081120#3 21081120#4 332402667 316713564 36729011#0 62212739#0 62212739#1 332402669#0 332402669#1 332402669#2 332402669#3 234002366" />
    </vehicle>
    <vehicle id="9" depart="1.00"><route edges="128171761 1122952688 -1122952688 -128171761 -62200559#1 -62200559#0 -316713565 -36729012 -36729011#1 -36729011#0 -316713564 -332402667 -21081120#4 -21081120#3 -21081120#2 -42919373#0 -42919372 -42919371 -42919374#2 -42919374#1 -42919374#0 -126902357#1" /></vehicle><vehicle id="12" depart="1.20">
        <route edges="-114554802#6 -114554802#5 -114554802#4 -114554802#3 1268135628#0 1268135628#1 114554786#0 114554786#1 114554786#2 114554766 114554764#0 114554764#1 114554764#2 114554757 114555282 114555280 114555281#0 114555281#1 81527786 114555279 316508912 316508913 34031133#0 34031133#1 572656872#0 572656872#1 333061565 333061571 81527785#0 81527785#1 333061564 333061566 333061567#0 333061567#1 333061568 333061573#0 333061573#1 333061573#2 30903129#0 30903129#1 30903129#2 126902358 42919376#0 42919376#1 42919375 126902357#0 126902357#1 42919374#0 42919374#1 42919374#2 42919371 42919372 42919373#0 -42919373#0 -42919372 -42919371" />
    </vehicle>
    <vehicle id="11" depart="1.20"><route edges="-42919375 -42919376#1 -42919376#0 -126902358 -30903129#2 -30903129#1 30903129#1 30903129#2 126902358 42919376#0 42919376#1 42919375 126902357#0 126902357#1 42919374#0 42919374#1 42919374#2 42919371 42919372 42919373#0 21081120#2 21081120#3 21081120#4 332402667 316713564 36729011#0 62212739#0 62212739#1 332402669#0 332402669#1 332402669#2 332402669#3 234002366" /></vehicle><vehicle id="14" depart="1.40">
        <route edges="30568275#2 316590746#0 316590746#1 316590745 316590744 36729015#0 36729015#1 36729015#2 234072361 234072360#0 234072360#1" />
    </vehicle>
    <vehicle id="13" depart="1.40"><route edges="-114554802#6 -114554802#5 -114554802#4 -114554802#3 1268135628#0 1268135628#1 114554786#0 114554786#1 114554786#2 114554766 114554764#0 114554764#1 114554764#2 114554757 114555282 114555280 114555281#0 114555281#1 81527786 114555279 316508912 316508913 34031133#0 34031133#1 572656872#0 572656872#1 333061565 333061571 81527785#0 81527785#1 333061564 333061566 333061567#0 333061567#1 333061568 333061573#0 333061573#1 333061573#2 30903129#0 30903129#1 30903129#2 126902358 42919376#0 42919376#1 42919375 126902357#0 126902357#1 42919374#0 42919374#1 42919374#2 42919371 42919372 42919373#0 -42919373#0 -42919372 -42919371" /></vehicle><vehicle id="16" depart="1.60">
        <route edges="-42919376#0 -126902358 -30903129#2 -30903129#1 -30903129#0 30568275#0 30568275#1 30568275#2 316590746#0 316590746#1 316590745 316590744 36729015#0 36729015#1 36729015#2 234072361 234072360#0 234072360#1 234072360#2 234072362 234100809#0 234100809#1 234100809#2 234100501#0 234100501#1 37293912#1 948969467#0 948969467#1 948969467#2 29186154#0 29186154#1 29186154#2 29186154#3 29186154#4 29186154#5 36729010 36726220#0 36726220#1 29400781#0 29400781#1 29400781#2 324204703 324204704 324204705#0 324204705#1 28408345#0 28408345#1" />
    </vehicle>
    <vehicle id="15" depart="1.60"><route edges="30568275#2 316590746#0 316590746#1 316590745 316590744 36729015#0 36729015#1 36729015#2 234072361 234072360#0 234072360#1" /></vehicle><vehicle id="18" depart="1.80">
        <route edges="1122952687#1 80727851 80727847#0 80727847#1 81796384 80727852#0 80727852#1 310792148 62201410 62213052#0 62213052#1 62213052#2 62213052#3 62213050 36726223#0 62212736#2 62212736#3 62212737 62212741 234001133#0 234001133#1 234001132 332402672#0 332402672#1 234001131 132422343 62212740 332402673#0 332402673#1 332402673#2 -36729011#0 -316713564 -332402667 -21081120#4 -21081120#3 -21081120#2 -42919373#0 -42919372 -42919371 -42919374#2 -42919374#1 -42919374#0 -126902357#1 -126902357#0 -42919375 -42919376#1 -42919376#0 -126902358 -30903129#2 -30903129#1 -30903129#0 -333061573#2 -333061573#1 -333061573#0 -333061568 -333061567#1 -333061567#0 -333061566 -333061564 -81527785#1 -81527785#0 -333061571" />
    </vehicle>
    <vehicle id="17" depart="1.80"><route edges="-42919376#0 -126902358 -30903129#2 -30903129#1 -30903129#0 30568275#0 30568275#1 30568275#2 316590746#0 316590746#1 316590745 316590744 36729015#0 36729015#1 36729015#2 234072361 234072360#0 234072360#1 234072360#2 234072362 234100809#0 234100809#1 234100809#2 234100501#0 234100501#1 37293912#1 948969467#0 948969467#1 948969467#2 29186154#0 29186154#1 29186154#2 29186154#3 29186154#4 29186154#5 36729010 36726220#0 36726220#1 29400781#0 29400781#1 29400781#2 324204703 324204704 324204705#0 324204705#1 28408345#0 28408345#1" /></vehicle><vehicle id="20" depart="2.00">
        <route edges="80727847#1 81796384 80727852#0 80727852#1 -80727852#1 -80727852#0 -81796384 -80727847#1 -80727847#0 -80727851 -1122952687#1 -1122952687#0 1122952687#0 1122952687#1" />
    </vehicle>
    <vehicle id="19" depart="2.00"><route edges="1122952687#1 80727851 80727847#0 80727847#1 81796384 80727852#0 80727852#1 310792148 62201410 62213052#0 62213052#1 62213052#2 62213052#3 62213050 36726223#0 62212736#2 62212736#3 62212737 62212741 234001133#0 234001133#1 234001132 332402672#0 332402672#1 234001131 132422343 62212740 332402673#0 332402673#1 332402673#2 -36729011#0 -316713564 -332402667 -21081120#4 -21081120#3 -21081120#2 -42919373#0 -42919372 -42919371 -42919374#2 -42919374#1 -42919374#0 -126902357#1 -126902357#0 -42919375 -42919376#1 -42919376#0 -126902358 -30903129#2 -30903129#1 -30903129#0 -333061573#2 -333061573#1 -333061573#0 -333061568 -333061567#1 -333061567#0 -333061566 -333061564 -81527785#1 -81527785#0 -333061571" /></vehicle><vehicle id="22" depart="2.20">
        <route edges="-234000028 -62212960 -36726224 -36726223#1 62212736#2 62212736#3 62212737 62212741 234001133#0 234001133#1 234001132 332402672#0 332402672#1 234001131 132422343 62212740 332402673#0 332402673#1 332402673#2 36729011#1 36729012 316713565 62200559#0 62200559#1 128171761 1122952688 -29186154#5 -29186154#4 -29186154#3 -29186154#2 -29186154#1 -29186154#0" />
    </vehicle>
    <vehicle id="21" depart="2.20"><route edges="80727847#1 81796384 80727852#0 80727852#1 -80727852#1 -80727852#0 -81796384 -80727847#1 -80727847#0 -80727851 -1122952687#1 -1122952687#0 1122952687#0 1122952687#1" /></vehicle><vehicle id="24" depart="2.40">
        <route edges="42919375 126902357#0 126902357#1 42919374#0 42919374#1 42919374#2 42919371 42919372 42919373#0 21081120#2 21081120#3 21081120#4 332402667 316713564 36729011#0 62212739#0 62212739#1 332402669#0 332402669#1 332402669#2 332402669#3 234002366 332402670#0 332402670#1 81522820#0 36729015#1 36729015#2 234072361 234072360#0 234072360#1 234072360#2 234072362 234100809#0 234100809#1 234100809#2 234100501#0 234100501#1 37293912#1 948969467#0 948969467#1 948969467#2 29186154#0 29186154#1 29186154#2" />
    </vehicle>
    <vehicle id="23" depart="2.40"><route edges="-234000028 -62212960 -36726224 -36726223#1 62212736#2 62212736#3 62212737 62212741 234001133#0 234001133#1 234001132 332402672#0 332402672#1 234001131 132422343 62212740 332402673#0 332402673#1 332402673#2 36729011#1 36729012 316713565 62200559#0 62200559#1 128171761 1122952688 -29186154#5 -29186154#4 -29186154#3 -29186154#2 -29186154#1 -29186154#0" /></vehicle><vehicle id="26" depart="2.60">
        <route edges="234002842#3 332402668#0 332402668#1 332399560#0 332399560#1 332399559 332399561#0 332399561#1 114554764#2 114554757 114555282 114555280 114555281#0 114555281#1 81527786 114555279 316508912 316508913 34031133#0 34031133#1 572656872#0 572656872#1 333061565 333061571 81527785#0 81527785#1 333061564 333061566 333061567#0 333061567#1 333061568 333061573#0 333061573#1 333061573#2 30903129#0 -30903129#0 30568275#0 30568275#1 30568275#2 316590746#0 316590746#1 316590745 316590744 36729015#0 36729015#1 36729015#2 234072361 234072360#0 234072360#1 234072360#2 234072362 234100809#0 234100809#1 234100809#2 234100501#0 234100501#1 234100501#2 81523597#0" />
    </vehicle>
    <vehicle id="25" depart="2.60"><route edges="42919375 126902357#0 126902357#1 42919374#0 42919374#1 42919374#2 42919371 42919372 42919373#0 21081120#2 21081120#3 21081120#4 332402667 316713564 36729011#0 62212739#0 62212739#1 332402669#0 332402669#1 332402669#2 332402669#3 234002366 332402670#0 332402670#1 81522820#0 36729015#1 36729015#2 234072361 234072360#0 234072360#1 234072360#2 234072362 234100809#0 234100809#1 234100809#2 234100501#0 234100501#1 37293912#1 948969467#0 948969467#1 948969467#2 29186154#0 29186154#1 29186154#2" /></vehicle><vehicle id="28" depart="2.80">
        <route edges="114554802#5 114554802#6 114554802#7 114554802#8 114554802#9 114554802#10 37293913#0 37293913#1 37293913#2 37293913#3 37293913#4 37293912#0 37293912#1 948969467#0 948969467#1 948969467#2 29186154#0 29186154#1 29186154#2 29186154#3 29186154#4 29186154#5 -1122952688 -128171761 -62200559#1 -62200559#0 -316713565 -36729012 -36729011#1 62212739#0 62212739#1 332402669#0 332402669#1 332402669#2 332402669#3 234002366 332402670#0 332402670#1 81522820#0 36729015#1 36729015#2 234072361 234072360#0 234072360#1 234072360#2 234072362" />
    </vehicle>
    <vehicle id="27" depart="2.80"><route edges="234002842#3 332402668#0 332402668#1 332399560#0 332399560#1 332399559 332399561#0 332399561#1 114554764#2 114554757 114555282 114555280 114555281#0 114555281#1 81527786 114555279 316508912 316508913 34031133#0 34031133#1 572656872#0 572656872#1 333061565 333061571 81527785#0 81527785#1 333061564 333061566 333061567#0 333061567#1 333061568 333061573#0 333061573#1 333061573#2 30903129#0 -30903129#0 30568275#0 30568275#1 30568275#2 316590746#0 316590746#1 316590745 316590744 36729015#0 36729015#1 36729015#2 234072361 234072360#0 234072360#1 234072360#2 234072362 234100809#0 234100809#1 234100809#2 234100501#0 234100501#1 234100501#2 81523597#0" /></vehicle><vehicle id="30" depart="3.00">
        <route edges="37293913#3 37293913#4 37293912#0 37293912#1 948969467#0 948969467#1 948969467#2 29186154#0 29186154#1 29186154#2 29186154#3 29186154#4 29186154#5 36729010 36726220#0 36726220#1 29400781#0 29400781#1 29400781#2" />
    </vehicle>
    <vehicle id="29" depart="3.00"><route edges="114554802#5 114554802#6 114554802#7 114554802#8 114554802#9 114554802#10 37293913#0 37293913#1 37293913#2 37293913#3 37293913#4 37293912#0 37293912#1 948969467#0 948969467#1 948969467#2 29186154#0 29186154#1 29186154#2 29186154#3 29186154#4 29186154#5 -1122952688 -128171761 -62200559#1 -62200559#0 -316713565 -36729012 -36729011#1 62212739#0 62212739#1 332402669#0 332402669#1 332402669#2 332402669#3 234002366 332402670#0 332402670#1 81522820#0 36729015#1 36729015#2 234072361 234072360#0 234072360#1 234072360#2 234072362" /></vehicle><vehicle id="32" depart="3.20">
        <route edges="62200559#0 62200559#1 128171761 1122952688 36729010 36726220#0 36726220#1 29400781#0 29400781#1 29400781#2 324204703 324204704 324204705#0 324204705#1 28408345#0 28408345#1" />
    </vehicle>
    <vehicle id="31" depart="3.20"><route edges="37293913#3 37293913#4 37293912#0 37293912#1 948969467#0 948969467#1 948969467#2 29186154#0 29186154#1 29186154#2 29186154#3 29186154#4 29186154#5 36729010 36726220#0 36726220#1 29400781#0 29400781#1 29400781#2" /></vehicle><vehicle id="34" depart="3.40">
        <route edges="332402669#1 332402669#2 332402669#3 234002366 332402670#0 332402670#1 81522820#0 36729015#1 36729015#2 234072361 234072360#0 234072360#1 234072360#2 234072362 234100809#0 234100809#1 234100809#2 234100501#0 234100501#1 37293912#1 948969467#0 948969467#1 948969467#2 29186154#0 29186154#1 29186154#2 29186154#3 29186154#4 29186154#5 -1122952688 -128171761 -62200559#1 -62200559#0 -316713565 -36729012 -36729011#1 -36729011#0 -316713564 -332402667 -21081120#4" />
    </vehicle>
    <vehicle id="33" depart="3.40"><route edges="62200559#0 62200559#1 128171761 1122952688 36729010 36726220#0 36726220#1 29400781#0 29400781#1 29400781#2 324204703 324204704 324204705#0 324204705#1 28408345#0 28408345#1" /></vehicle><vehicle id="36" depart="3.60">
        <route edges="-62200559#0 -316713565 -36729012 -36729011#1 -36729011#0 -316713564 -332402667 -21081120#4 -21081120#3 -21081120#2 42919373#1 42919373#2 76334539#0 76334539#1 76334539#2 76334538 217644146#0 217644146#1 15245482#0 -15245482#0 -217644146#1 -217644146#0 -76334538 -76334539#2 -76334539#1 -76334539#0" />
    </vehicle>
    <vehicle id="35" depart="3.60"><route edges="332402669#1 332402669#2 332402669#3 234002366 332402670#0 332402670#1 81522820#0 36729015#1 36729015#2 234072361 234072360#0 234072360#1 234072360#2 234072362 234100809#0 234100809#1 234100809#2 234100501#0 234100501#1 37293912#1 948969467#0 948969467#1 948969467#2 29186154#0 29186154#1 29186154#2 29186154#3 29186154#4 29186154#5 -1122952688 -128171761 -62200559#1 -62200559#0 -316713565 -36729012 -36729011#1 -36729011#0 -316713564 -332402667 -21081120#4" /></vehicle><vehicle id="38" depart="3.80">
        <route edges="-234000028 -62212960 -36726224 -36726223#1 -36726223#0 -62213050 -62213052#3 -62213052#2 -62213052#1 -62213052#0 -62201410 -310792148 -80727852#1 -80727852#0 -81796384 -80727847#1 -80727847#0 -80727851 -1122952687#1 -1122952687#0 -1122952688 -128171761 -62200559#1 -62200559#0" />
    </vehicle>
    <vehicle id="37" depart="3.80"><route edges="-62200559#0 -316713565 -36729012 -36729011#1 -36729011#0 -316713564 -332402667 -21081120#4 -21081120#3 -21081120#2 42919373#1 42919373#2 76334539#0 76334539#1 76334539#2 76334538 217644146#0 217644146#1 15245482#0 -15245482#0 -217644146#1 -217644146#0 -76334538 -76334539#2 -76334539#1 -76334539#0" /></vehicle><vehicle id="40" depart="4.00">
        <route edges="-29186154#0 -948969467#2 -948969467#1 -948969467#0 -37293912#1 37293912#1 948969467#0 948969467#1 948969467#2 29186154#0 29186154#1 29186154#2 29186154#3 29186154#4 29186154#5 1122952687#0 1122952687#1 80727851 80727847#0 80727847#1 81796384 80727852#0 80727852#1 310792148 62201410 62213052#0 62213052#1 62213052#2 62213052#3 62213050 36726223#0 36726223#1 36726224 62212960 234000028 76333545 76333547 233999572#0 233999572#1 233999572#2 -217644146#1 -217644146#0 -76334538 -76334539#2 -76334539#1 -76334539#0" />
    </vehicle>
    <vehicle id="39" depart="4.00"><route edges="-234000028 -62212960 -36726224 -36726223#1 -36726223#0 -62213050 -62213052#3 -62213052#2 -62213052#1 -62213052#0 -62201410 -310792148 -80727852#1 -80727852#0 -81796384 -80727847#1 -80727847#0 -80727851 -1122952687#1 -1122952687#0 -1122952688 -128171761 -62200559#1 -62200559#0" /></vehicle><vehicle id="42" depart="4.20">
        <route edges="30568275#2 316590746#0 316590746#1 316590745 316590744 36729015#0 36729015#1 36729015#2 234072361 234072360#0 234072360#1 234072360#2 234072362 234100809#0 234100809#1 234100809#2 234100501#0 234100501#1 -37293912#0 -37293913#4 -37293913#3 -37293913#2 -37293913#1 -37293913#0 -114554802#10 -114554802#9 -114554802#8 -114554802#7 -114554802#6 -114554802#5 -114554802#4 -114554802#3 1268135628#0 1268135628#1 114554786#0 114554786#1 114554786#2" />
    </vehicle>
    <vehicle id="41" depart="4.20"><route edges="-29186154#0 -948969467#2 -948969467#1 -948969467#0 -37293912#1 37293912#1 948969467#0 948969467#1 948969467#2 29186154#0 29186154#1 29186154#2 29186154#3 29186154#4 29186154#5 1122952687#0 1122952687#1 80727851 80727847#0 80727847#1 81796384 80727852#0 80727852#1 310792148 62201410 62213052#0 62213052#1 62213052#2 62213052#3 62213050 36726223#0 36726223#1 36726224 62212960 234000028 76333545 76333547 233999572#0 233999572#1 233999572#2 -217644146#1 -217644146#0 -76334538 -76334539#2 -76334539#1 -76334539#0" /></vehicle><vehicle id="44" depart="4.40">
        <route edges="114554802#5 114554802#6 114554802#7 114554802#8 114554802#9 114554802#10 37293913#0 37293913#1 37293913#2 37293913#3 37293913#4 37293912#0 37293912#1 948969467#0 948969467#1 948969467#2 29186154#0 29186154#1 29186154#2 29186154#3 29186154#4 29186154#5 -1122952688 -128171761 -62200559#1 -62200559#0 -316713565 -36729012 -36729011#1 -36729011#0 -316713564 -332402667 -21081120#4 -21081120#3 -21081120#2 -42919373#0 -42919372 -42919371 -42919374#2 -42919374#1 -42919374#0 -126902357#1 -126902357#0 -42919375" />
    </vehicle>
    <vehicle id="43" depart="4.40"><route edges="30568275#2 316590746#0 316590746#1 316590745 316590744 36729015#0 36729015#1 36729015#2 234072361 234072360#0 234072360#1 234072360#2 234072362 234100809#0 234100809#1 234100809#2 234100501#0 234100501#1 -37293912#0 -37293913#4 -37293913#3 -37293913#2 -37293913#1 -37293913#0 -114554802#10 -114554802#9 -114554802#8 -114554802#7 -114554802#6 -114554802#5 -114554802#4 -114554802#3 1268135628#0 1268135628#1 114554786#0 114554786#1 114554786#2" /></vehicle><vehicle id="46" depart="4.60">
        <route edges="-62213052#2 -62213052#1 -62213052#0 -62201410 -310792148 -80727852#1 -80727852#0 -81796384 -80727847#1 -80727847#0 -80727851 -1122952687#1 -1122952687#0 -1122952688 -128171761 -62200559#1 -62200559#0 -316713565 -36729012 -36729011#1 -36729011#0 -316713564 -332402667 -21081120#4 -21081120#3 -21081120#2 42919373#1 42919373#2 76334539#0" />
    </vehicle>
    <vehicle id="45" depart="4.60"><route edges="114554802#5 114554802#6 114554802#7 114554802#8 114554802#9 114554802#10 37293913#0 37293913#1 37293913#2 37293913#3 37293913#4 37293912#0 37293912#1 948969467#0 948969467#1 948969467#2 29186154#0 29186154#1 29186154#2 29186154#3 29186154#4 29186154#5 -1122952688 -128171761 -62200559#1 -62200559#0 -316713565 -36729012 -36729011#1 -36729011#0 -316713564 -332402667 -21081120#4 -21081120#3 -21081120#2 -42919373#0 -42919372 -42919371 -42919374#2 -42919374#1 -42919374#0 -126902357#1 -126902357#0 -42919375" /></vehicle><vehicle id="48" depart="4.80">
        <route edges="30568275#2 316590746#0 316590746#1 316590745 316590744 36729015#0 36729015#1 36729015#2 234072361 234072360#0 234072360#1 234072360#2 234072362 234100809#0 234100809#1 234100809#2 234100501#0 234100501#1 37293912#1 948969467#0 948969467#1 948969467#2 29186154#0 29186154#1 29186154#2 29186154#3" />
    </vehicle>
    <vehicle id="47" depart="4.80"><route edges="-62213052#2 -62213052#1 -62213052#0 -62201410 -310792148 -80727852#1 -80727852#0 -81796384 -80727847#1 -80727847#0 -80727851 -1122952687#1 -1122952687#0 -1122952688 -128171761 -62200559#1 -62200559#0 -316713565 -36729012 -36729011#1 -36729011#0 -316713564 -332402667 -21081120#4 -21081120#3 -21081120#2 42919373#1 42919373#2 76334539#0" /></vehicle><vehicle id="50" depart="5.00">
        <route edges="-36726220#0 -36729010 -1122952688 -128171761 -62200559#1 -62200559#0 -316713565 -36729012 -36729011#1 62212739#0 62212739#1 332402669#0 332402669#1 332402669#2 332402669#3 234002366 332402670#0 332402670#1 81522820#0 81522820#1 81522820#2 234002842#0 234002842#1 234002842#2 234002842#3 332402668#0 332402668#1 332399560#0 332399560#1 332399559 332399561#0 332399561#1 114554764#2 114554757 114555282 114555280 114555281#0 114555281#1 81527786 114555279 316508912 316508913 34031133#0 34031133#1 572656872#0 572656872#1 333061565 333061571 81527785#0 81527785#1 333061564" />
    </vehicle>
    <vehicle id="49" depart="5.00"><route edges="30568275#2 316590746#0 316590746#1 316590745 316590744 36729015#0 36729015#1 36729015#2 234072361 234072360#0 234072360#1 234072360#2 234072362 234100809#0 234100809#1 234100809#2 234100501#0 234100501#1 37293912#1 948969467#0 948969467#1 948969467#2 29186154#0 29186154#1 29186154#2 29186154#3" /></vehicle><vehicle id="52" depart="5.20">
        <route edges="-36726220#0 -36729010 -29186154#5 -29186154#4 -29186154#3 -29186154#2 -29186154#1 -29186154#0 -948969467#2 -948969467#1 -948969467#0 -37293912#1 -37293912#0 -37293913#4 -37293913#3 -37293913#2 -37293913#1 -37293913#0 -114554802#10 -114554802#9 -114554802#8 -114554802#7 -114554802#6 -114554802#5 -114554802#4 -114554802#3 114554802#3 114554802#4 114554802#5 114554802#6" />
    </vehicle>
    <vehicle id="51" depart="5.20"><route edges="-36726220#0 -36729010 -1122952688 -128171761 -62200559#1 -62200559#0 -316713565 -36729012 -36729011#1 62212739#0 62212739#1 332402669#0 332402669#1 332402669#2 332402669#3 234002366 332402670#0 332402670#1 81522820#0 81522820#1 81522820#2 234002842#0 234002842#1 234002842#2 234002842#3 332402668#0 332402668#1 332399560#0 332399560#1 332399559 332399561#0 332399561#1 114554764#2 114554757 114555282 114555280 114555281#0 114555281#1 81527786 114555279 316508912 316508913 34031133#0 34031133#1 572656872#0 572656872#1 333061565 333061571 81527785#0 81527785#1 333061564" /></vehicle><vehicle id="54" depart="5.40">
        <route edges="81796384 80727852#0 80727852#1 310792148 62201410 62213052#0 62213052#1 62213052#2 62213052#3 62213050 36726223#0 62212736#2 62212736#3 62212737 62212741 234001133#0 234001133#1 234001132 332402672#0 332402672#1 234001131 132422343 62212740 332402673#0 332402673#1 332402673#2 -36729011#0 -316713564 -332402667 -21081120#4 -21081120#3 -21081120#2 -42919373#0 -42919372 -42919371 -42919374#2 -42919374#1 -42919374#0 -126902357#1 -126902357#0 -42919375 -42919376#1 -42919376#0 -126902358 -30903129#2 -30903129#1 -30903129#0 30568275#0 30568275#1 30568275#2" />
    </vehicle>
    <vehicle id="53" depart="5.40"><route edges="-36726220#0 -36729010 -29186154#5 -29186154#4 -29186154#3 -29186154#2 -29186154#1 -29186154#0 -948969467#2 -948969467#1 -948969467#0 -37293912#1 -37293912#0 -37293913#4 -37293913#3 -37293913#2 -37293913#1 -37293913#0 -114554802#10 -114554802#9 -114554802#8 -114554802#7 -114554802#6 -114554802#5 -114554802#4 -114554802#3 114554802#3 114554802#4 114554802#5 114554802#6" /></vehicle><vehicle id="56" depart="5.60">
        <route edges="42919374#2 42919371 42919372 42919373#0 21081120#2 21081120#3 21081120#4 332402667 316713564 36729011#0 36729011#1 36729012 316713565 62200559#0 62200559#1 128171761 1122952688 36729010 36726220#0" />
    </vehicle>
    <vehicle id="55" depart="5.60"><route edges="81796384 80727852#0 80727852#1 310792148 62201410 62213052#0 62213052#1 62213052#2 62213052#3 62213050 36726223#0 62212736#2 62212736#3 62212737 62212741 234001133#0 234001133#1 234001132 332402672#0 332402672#1 234001131 132422343 62212740 332402673#0 332402673#1 332402673#2 -36729011#0 -316713564 -332402667 -21081120#4 -21081120#3 -21081120#2 -42919373#0 -42919372 -42919371 -42919374#2 -42919374#1 -42919374#0 -126902357#1 -126902357#0 -42919375 -42919376#1 -42919376#0 -126902358 -30903129#2 -30903129#1 -30903129#0 30568275#0 30568275#1 30568275#2" /></vehicle><vehicle id="58" depart="5.80">
        <route edges="-62200559#0 -316713565 -36729012 -36729011#1 -36729011#0 -316713564 -332402667 -21081120#4 -21081120#3 -21081120#2 -42919373#0 -42919372 -42919371 -42919374#2 -42919374#1 -42919374#0 -126902357#1 -126902357#0 -42919375 -42919376#1 -42919376#0 -126902358" />
    </vehicle>
    <vehicle id="57" depart="5.80"><route edges="42919374#2 42919371 42919372 42919373#0 21081120#2 21081120#3 21081120#4 332402667 316713564 36729011#0 36729011#1 36729012 316713565 62200559#0 62200559#1 128171761 1122952688 36729010 36726220#0" /></vehicle><vehicle id="60" depart="6.00">
        <route edges="-80727847#1 -80727847#0 -80727851 -1122952687#1 -1122952687#0 1122952687#0 1122952687#1 80727851 80727847#0 80727847#1 81796384 80727852#0 80727852#1 310792148 62201410 62213052#0 62213052#1 62213052#2 62213052#3 62213050 36726223#0 36726223#1 36726224 62212960 234000028 76333545 76333547 233999572#0 233999572#1 -233999572#1 -233999572#0 -76333547 -76333545" />
    </vehicle>
    <vehicle id="59" depart="6.00"><route edges="-62200559#0 -316713565 -36729012 -36729011#1 -36729011#0 -316713564 -332402667 -21081120#4 -21081120#3 -21081120#2 -42919373#0 -42919372 -42919371 -42919374#2 -42919374#1 -42919374#0 -126902357#1 -126902357#0 -42919375 -42919376#1 -42919376#0 -126902358" /></vehicle><vehicle id="62" depart="6.20">
        <route edges="-42919374#2 -42919374#1 -42919374#0 -126902357#1 -126902357#0 -42919375 -42919376#1 -42919376#0 -126902358 -30903129#2 -30903129#1 30903129#1 30903129#2 126902358 42919376#0 42919376#1 42919375 126902357#0 126902357#1 42919374#0 42919374#1 42919374#2 42919371 42919372 42919373#0 42919373#1 42919373#2 76334539#0 76334539#1" />
    </vehicle>
    <vehicle id="61" depart="6.20"><route edges="-80727847#1 -80727847#0 -80727851 -1122952687#1 -1122952687#0 1122952687#0 1122952687#1 80727851 80727847#0 80727847#1 81796384 80727852#0 80727852#1 310792148 62201410 62213052#0 62213052#1 62213052#2 62213052#3 62213050 36726223#0 36726223#1 36726224 62212960 234000028 76333545 76333547 233999572#0 233999572#1 -233999572#1 -233999572#0 -76333547 -76333545" /></vehicle><vehicle id="64" depart="6.40">
        <route edges="62212737 62212741 234001133#0 234001133#1 234001132 332402672#0 332402672#1 234001131 132422343 62212740 332402673#0 332402673#1 332402673#2 36729011#1 36729012 316713565 62200559#0 62200559#1 128171761 1122952688 1122952687#0 1122952687#1 80727851 80727847#0 80727847#1 81796384 80727852#0 80727852#1 -80727852#1 -80727852#0 -81796384 -80727847#1" />
    </vehicle>
    <vehicle id="63" depart="6.40"><route edges="-42919374#2 -42919374#1 -42919374#0 -126902357#1 -126902357#0 -42919375 -42919376#1 -42919376#0 -126902358 -30903129#2 -30903129#1 30903129#1 30903129#2 126902358 42919376#0 42919376#1 42919375 126902357#0 126902357#1 42919374#0 42919374#1 42919374#2 42919371 42919372 42919373#0 42919373#1 42919373#2 76334539#0 76334539#1" /></vehicle><vehicle id="66" depart="6.60">
        <route edges="76333545 76333547 233999572#0 233999572#1 233999572#2 -217644146#1 -217644146#0 -76334538 -76334539#2 -76334539#1 -76334539#0 -42919373#2 -42919373#1 21081120#2 21081120#3 21081120#4" />
    </vehicle>